LTspice 24.0.12 for Windows
Circuit: * C:\Users\marcu\Desktop\GRO\S4\Projet\GROchet_PCB\LTSpice\Button_Debounce.asc
Start Time: Tue Jan 27 15:37:38 2026
Error on line 6 : .ic n002 = 5
	 Error: .ic syntax error.
solver = Normal
Maximum thread count: 12
tnom = 27
temp = 27
method = modified trap
Direct Newton iteration for .op point succeeded.
Total elapsed time: 0.247 seconds.

